Circuit: * C:\Users\Al\Desktop\курсова\kr\sxematic.asc

Direct Newton iteration for .op point succeeded.

Date: Wed Jun 06 00:05:30 2018
Total elapsed time: 0.065 seconds.

tnom = 27
temp = 27
method = modified trap
totiter = 2111
traniter = 2086
tranpoints = 1044
accept = 1044
rejected = 0
matrix size = 55
fillins = 108
solver = Normal
Matrix Compiler1: 8.58 KB object code size  2.8/2.0/[0.9]
Matrix Compiler2: 6.54 KB object code size  1.3/1.8/[0.8]


