Circuit: * D:\kr\sxematic.asc

Direct Newton iteration for .op point succeeded.

Date: Sat May 19 22:05:42 2018
Total elapsed time: 0.068 seconds.

tnom = 27
temp = 27
method = modified trap
totiter = 2118
traniter = 2086
tranpoints = 1044
accept = 1044
rejected = 0
matrix size = 55
fillins = 108
solver = Normal
Matrix Compiler1: 8.50 KB object code size  2.8/2.1/[0.9]
Matrix Compiler2: 6.51 KB object code size  1.4/1.8/[0.9]


