Circuit: * D:\kr\sxematic.asc

Direct Newton iteration for .op point succeeded.

Date: Sun May 13 19:47:25 2018
Total elapsed time: 0.306 seconds.

tnom = 27
temp = 27
method = modified trap
totiter = 4230
traniter = 4198
tranpoints = 2100
accept = 1680
rejected = 420
matrix size = 63
fillins = 108
solver = Normal
Matrix Compiler1: 8.89 KB object code size  3.3/2.3/[1.0]
Matrix Compiler2: 7.08 KB object code size  1.4/2.0/[0.9]


